Version 4
SHEET 1 2636 900
WIRE -592 -304 -608 -304
WIRE -416 -304 -432 -304
WIRE -256 -304 -256 -320
WIRE -224 -304 -256 -304
WIRE -608 -272 -608 -304
WIRE -432 -272 -432 -304
WIRE -256 -256 -256 -304
WIRE -608 -176 -608 -192
WIRE -432 -176 -432 -192
WIRE -256 -176 -256 -192
WIRE -224 48 -320 48
WIRE -80 48 -144 48
WIRE -320 96 -320 48
WIRE -320 96 -448 96
WIRE -256 96 -320 96
WIRE -192 96 -256 96
WIRE -320 112 -320 96
WIRE -320 176 -448 176
WIRE 960 192 928 192
WIRE 1136 192 1120 192
WIRE -448 208 -448 176
WIRE -448 208 -592 208
WIRE -320 208 -320 176
WIRE -320 208 -448 208
WIRE 368 208 336 208
WIRE 624 208 448 208
WIRE -592 224 -592 208
WIRE -448 224 -448 208
WIRE -640 240 -688 240
WIRE -368 240 -400 240
WIRE 272 256 240 256
WIRE 528 256 512 256
WIRE 2064 256 1680 256
WIRE 1136 272 1120 272
WIRE 1152 272 1136 272
WIRE 1744 272 1728 272
WIRE -640 288 -656 288
WIRE -384 288 -400 288
WIRE 512 288 512 256
WIRE 960 288 928 288
WIRE 1040 288 1040 192
WIRE 1040 288 1024 288
WIRE 1120 288 1120 272
WIRE 1136 288 1136 272
WIRE 448 304 448 208
WIRE 480 304 448 304
WIRE 1040 304 1040 288
WIRE 1088 304 1040 304
WIRE 1248 304 1232 304
WIRE 1728 304 1728 272
WIRE -256 320 -256 96
WIRE 624 320 624 288
WIRE 624 320 544 320
WIRE 672 320 624 320
WIRE 1232 320 1232 304
WIRE 1232 320 1152 320
WIRE 1248 320 1232 320
WIRE 1680 320 1680 256
WIRE 1696 320 1680 320
WIRE 272 336 192 336
WIRE 368 336 272 336
WIRE 464 336 448 336
WIRE 480 336 464 336
WIRE 1088 336 1056 336
WIRE 1792 336 1760 336
WIRE 1872 336 1856 336
WIRE 1888 336 1872 336
WIRE 1984 336 1952 336
WIRE 2064 336 2064 256
WIRE 2096 336 2064 336
WIRE 1696 352 1664 352
WIRE 2192 352 2160 352
WIRE -800 368 -832 368
WIRE -592 368 -592 304
WIRE -448 368 -448 304
WIRE -448 368 -592 368
WIRE 512 368 512 352
WIRE 1104 368 1104 352
WIRE 1120 368 1120 352
WIRE 1120 368 1104 368
WIRE 1136 368 1136 352
WIRE 1136 368 1120 368
WIRE 2096 368 2048 368
WIRE -688 384 -688 240
WIRE -672 384 -688 384
WIRE -592 384 -592 368
WIRE -592 384 -608 384
WIRE -320 384 -320 208
WIRE 1120 384 1120 368
WIRE -832 400 -832 368
WIRE 2128 400 2128 384
WIRE 2128 400 2112 400
WIRE -672 416 -688 416
WIRE -592 416 -608 416
WIRE 1248 416 1248 400
WIRE 272 432 272 416
WIRE 464 432 464 336
WIRE 464 432 448 432
WIRE 560 432 528 432
WIRE 1872 432 1872 336
WIRE 2048 432 2048 368
WIRE 2048 432 1952 432
WIRE 2192 432 2192 352
WIRE 2192 432 2048 432
WIRE -592 448 -592 416
WIRE -576 448 -592 448
WIRE -448 448 -496 448
WIRE -448 464 -448 448
WIRE -832 496 -832 480
WIRE -256 496 -256 384
WIRE -192 496 -256 496
WIRE -96 496 -96 480
WIRE -96 496 -112 496
WIRE -64 496 -96 496
WIRE 1248 496 1248 480
WIRE -320 544 -320 448
WIRE -320 544 -448 544
WIRE -256 544 -256 496
WIRE -256 544 -320 544
FLAG -416 -304 3.3V
FLAG -432 -176 0
FLAG 528 256 3.3V
FLAG 512 368 0
FLAG 272 432 0
FLAG -224 -304 Vref
FLAG -256 -176 0
FLAG 336 208 0
FLAG 560 432 0
FLAG 384 432 3.3V
FLAG -592 -304 Vbias
FLAG -608 -176 0
FLAG -656 288 0
FLAG -384 288 0
FLAG -368 240 ph
FLAG -64 496 anode
FLAG -192 96 cathode
FLAG -832 496 0
FLAG -800 368 ph
FLAG -80 48 Vbias
FLAG 192 336 anode
FLAG 672 320 SIG
FLAG -256 -400 3.3V
FLAG -96 416 0
FLAG 240 256 Vref
FLAG 1120 384 0
FLAG 1056 336 SIG
FLAG 928 192 Vref
FLAG 1136 192 0
FLAG 928 288 0
FLAG 1152 272 3.3V
FLAG 1248 304 INT
FLAG 1248 496 0
FLAG 1664 352 SIG
FLAG 1680 192 0
FLAG 1744 272 3.3V
FLAG 2112 400 3.3V
FLAG 2128 320 0
FLAG 1728 368 0
FLAG 2192 352 PEAK
FLAG 2144 256 0
SYMBOL Voltage -432 -288 R0
WINDOW 0 36 51 Left 2
WINDOW 3 38 81 Left 2
SYMATTR InstName Vsys
SYMATTR Value 3.3
SYMBOL Res 256 240 R0
SYMATTR InstName R1
SYMATTR Value 105k
SYMBOL Res 256 320 R0
SYMATTR InstName R2
SYMATTR Value 1k
SYMBOL Res 464 320 R90
WINDOW 0 0 56 VBottom 2
WINDOW 3 32 56 VTop 2
SYMATTR InstName R3
SYMATTR Value {RL}
SYMBOL Res 464 192 R90
WINDOW 0 0 56 VBottom 2
WINDOW 3 32 56 VTop 2
SYMATTR InstName R4
SYMATTR Value 1k
SYMBOL Res 608 192 R0
SYMATTR InstName R5
SYMATTR Value 2.2k
SYMBOL schottky 448 416 R90
WINDOW 0 0 32 VBottom 2
WINDOW 3 32 32 VTop 2
SYMATTR InstName D1
SYMATTR Value BAT54
SYMATTR Description Diode
SYMATTR Type diode
SYMBOL schottky 528 416 R90
WINDOW 0 0 32 VBottom 2
WINDOW 3 32 32 VTop 2
SYMATTR InstName D2
SYMATTR Value BAT54
SYMATTR Description Diode
SYMATTR Type diode
SYMBOL sw -592 320 M180
WINDOW 0 4 12 Left 2
WINDOW 3 8 97 Left 2
SYMATTR InstName S1
SYMATTR Value SW1
SYMATTR SpiceLine2 VOFF=0V
SYMBOL Voltage -608 -288 R0
WINDOW 0 36 51 Left 2
WINDOW 3 38 81 Left 2
SYMATTR InstName Vbias
SYMATTR Value 29.4
SYMATTR SpiceLine Rser=1k
SYMBOL Res -464 352 R0
SYMATTR InstName Rd_eq
SYMATTR Value {Rd/Nf}
SYMBOL Voltage -448 448 R0
WINDOW 0 36 51 Left 2
WINDOW 3 36 73 Left 2
SYMATTR InstName Vbd_eq
SYMATTR Value {Vbd}
SYMBOL Cap -336 384 R0
SYMATTR InstName Cd_eq
SYMATTR Value {Cd*Nf}
SYMBOL Cap -336 112 R0
SYMATTR InstName Cq_eq
SYMATTR Value {Cq*Nf}
SYMBOL Res -464 80 R0
SYMATTR InstName Rq_eq
SYMATTR Value {Rq/Nf}
SYMBOL Cap -272 320 R0
SYMATTR InstName Cm_eq
SYMATTR Value {Cm}
SYMBOL Voltage -592 448 R270
WINDOW 0 32 56 VTop 2
WINDOW 3 -58 56 VTop 2
SYMATTR InstName Vth
SYMATTR Value {Rd*Ith}
SYMBOL sw -448 320 R180
WINDOW 0 4 12 Left 2
WINDOW 3 8 97 Left 2
SYMATTR InstName S2
SYMATTR Value SW2
SYMATTR SpiceLine VON={Ph}
SYMBOL Voltage -832 384 R0
WINDOW 3 -48 166 Left 2
SYMATTR Value PULSE(0 {Ph} 1u 10f 900p 10p 2.5u 4)
SYMATTR InstName Vph
SYMBOL Digital/diffschmitt -608 336 M0
SYMATTR InstName A1
SYMBOL References/ADR5043 -256 -224 R0
SYMATTR InstName U3
SYMBOL Res -272 -416 R0
SYMATTR InstName R7
SYMATTR Value 1k
SYMBOL ind -208 512 R270
WINDOW 0 32 56 VTop 2
WINDOW 3 5 56 VBottom 2
SYMATTR InstName L2
SYMATTR Value 7n
SYMBOL Cap -112 416 R0
SYMATTR InstName C2
SYMATTR Value 15p
SYMBOL OpAmps/UniversalOpAmp2 512 320 R0
SYMATTR InstName U1
SYMBOL ind -240 64 R270
WINDOW 0 32 56 VTop 2
WINDOW 3 5 56 VBottom 2
SYMATTR InstName L1
SYMATTR Value 10n
SYMBOL Comparators/LT1719 1120 256 R0
SYMATTR InstName U2
SYMBOL Res 1056 176 R90
WINDOW 0 0 56 VBottom 2
WINDOW 3 32 56 VTop 2
SYMATTR InstName R6
SYMATTR Value 420k
SYMBOL Res 1136 176 R90
WINDOW 0 0 56 VBottom 2
WINDOW 3 32 56 VTop 2
SYMATTR InstName R8
SYMATTR Value 10.5k
SYMBOL Cap 1024 272 R90
WINDOW 0 -1 50 VBottom 2
WINDOW 3 32 46 VTop 2
SYMATTR InstName C1
SYMATTR Value 100n
SYMBOL Res 1232 304 R0
SYMATTR InstName R9
SYMATTR Value 1k
SYMBOL LED 1232 416 R0
SYMATTR InstName D3
SYMATTR Value L128-DRD1003500000
SYMATTR Description Diode
SYMATTR Type diode
SYMBOL OpAmps/UniversalOpAmp2 1728 336 R0
SYMATTR InstName U4
SYMBOL schottky 1792 352 R270
WINDOW 0 32 32 VTop 2
WINDOW 3 0 32 VBottom 2
SYMATTR InstName D4
SYMATTR Value BAT54
SYMATTR Description Diode
SYMATTR Type diode
SYMBOL schottky 1888 352 R270
WINDOW 0 32 32 VTop 2
WINDOW 3 0 32 VBottom 2
SYMATTR InstName D5
SYMATTR Value BAT54
SYMATTR Description Diode
SYMATTR Type diode
SYMBOL Res 2080 320 R90
WINDOW 0 0 56 VBottom 2
WINDOW 3 32 56 VTop 2
SYMATTR InstName R10
SYMATTR Value 100
SYMBOL Res 1968 416 R90
WINDOW 0 0 56 VBottom 2
WINDOW 3 32 56 VTop 2
SYMATTR InstName R11
SYMATTR Value 10k
SYMBOL Cap 1664 192 R0
WINDOW 0 24 15 Left 2
WINDOW 3 23 50 Left 2
SYMATTR InstName C3
SYMATTR Value 470p
SYMBOL OpAmps/UniversalOpAmp2 2128 352 M180
SYMATTR InstName U5
SYMBOL Res 2160 240 R90
WINDOW 0 0 56 VBottom 2
WINDOW 3 32 56 VTop 2
SYMATTR InstName R12
SYMATTR Value 100k
TEXT 112 40 Left 2 ;Preamplifier
TEXT 464 192 Left 2 ;Av=1+(R5/R4)
TEXT -864 40 Left 2 ;Silicone Photomultiplier Microcell Model
TEXT -672 -112 Left 2 !.tran .001u 2u
TEXT -880 -272 Left 2 !.param Ph=1\n.param Cd=80f\n.param Cq=10f\n.param Cm=0.5f\n.param Rd=1k\n.param Rq=300k\n.param RL=100\n.param Nf=100\n.param Ith=10u\n.param Vbd=24.4
TEXT -672 -80 Left 2 !.model SW1 SW(Von={Ph} Voff=0 Vt={Ph})\n.model SW2 SW(Von={Ph} Voff=0 Vt={Ph})
TEXT -880 -8 Left 2 ;Nf ~= number of microcells triggered ~= number of photon detections
TEXT 848 40 Left 2 ;Pulse discriminator / count detector
TEXT 1600 40 Left 2 ;Peak detector circuit
TEXT -880 -32 Left 2 ;Vbreakdown (delta Vbias & Vbd) affects triggering
RECTANGLE Normal -884 8 36 572 2
RECTANGLE Normal 76 8 800 572 2
RECTANGLE Normal 828 8 1552 572 2
RECTANGLE Normal 1580 8 2304 572 2
